src/test/resources/com/farao_community/farao/flow_decomposition/NETWORK_WITH_COUNTRIES_PST.uct
##C 2007.05.01
This is a test network with 2 generators on the left and 2 loads on the right.
There is a PST used to connect a load and a generator
Used to validate PST flow algorithm
##N
##ZFR
FGEN  11 GEN          0 3 400.00 0.00000 0.00000 -100.00 0.00000 1000.00 -1000.0 1000.00 -1000.0
##ZBE
BLOAD 11 LOAD         0 0        100.000 0.00000 0.00000 0.00000
##L
FGEN  11 BLOAD 11 1 0 1.0000 3.0000 0.000000    480 LINE
##T
FGEN  11 BLOAD 11 2 0 400.0 400.0 1000. 1.0000 3.0000 1.000000 2.0000   2000 PST
##R
FGEN  11 BLOAD 11 2                    0.680 90.00 16   0       SYMM
